14

C 3.573850 7.440566 18.099948
C 2.428300 6.702277 17.693207
C 2.371022 5.366436 18.116587
H 1.740970 7.089879 17.162596
H 1.595778 4.854248 17.915066
N 3.918847 8.804093 17.859601
C 4.656794 6.815328 18.876452
C 4.590193 5.454108 19.283193
C 3.461959 4.736584 18.859813
C 5.113682 8.857158 18.488200
H 5.269530 5.052664 19.813804
H 3.406013 3.809108 19.061334
H 5.589219 9.680811 18.488200
N 5.665145 7.795868 19.116799
